Circuit: * C:\Users\Guido\Google Drive\Facultad\TC\TP1\Twin T Notch.asc


Date: Thu Aug 08 22:38:58 2019
Total elapsed time: 0.095 seconds.

tnom = 27
temp = 27
method = trap
totiter = 0
traniter = 0
tranpoints = 0
accept = 0
rejected = 0
matrix size = 5
fillins = 2
solver = Normal

